.MODEL 2N5457 NJF(IS=1N VT0=-1.5 BETA=1.125M LAMBDA=2.3M CGD=4PF CGS=5PF)
