.model BSS84 VDMOS(pchan Rg=3 Vto=-2.1 Rd=2.4 Rs=1.8 Rb=3 Kp=.2 Cgdmax=.04n Cgdmin=.001n Cgs=.02n Cjo=.01n Is=2p ksubthres=.1 mfg=NXP Vds=-50 Ron=6000m Qg=1n)